
Circuit: * gnetlist -g spice-sdb -o netlists/colpitts.net schematics/colpitts.sch

Doing analysis at TEMP = 25.000000 and TNOM = 27.000000


No. of Data Rows : 1
Doing analysis at TEMP = 25.000000 and TNOM = 27.000000


Initial Transient Solution
--------------------------

Node                                   Voltage
----                                   -------
n3                                           5
n1                                    0.762274
n0                                     0.73537
n2                                     0.73537
l1#branch                         -2.69044e-05
v1#branch                          -0.00423773


No. of Data Rows : 47139

The file "postscript/colpitts.ps" may be printed on a postscript printer.
Doing analysis at TEMP = 25.000000 and TNOM = 27.000000

OP information in rawfile.
CPU time since last call: 0.792 seconds.

Total CPU time: 0.792 seconds.

Total DRAM available = 5952.910156 MB.
DRAM currently available = 2581.511719 MB.
Total ngspice program size = 15.580078 MB.
Resident set size = 2.783203 MB.
Shared ngspice pages = 1.753906 MB.
Text (code) pages = 1.333008 MB.
Stack = 0 bytes.
Library pages = 1.201172 MB.

