
Circuit: * gnetlist -g spice-sdb -o netlists/colpitts.net schematics/colpitts.sch

Doing analysis at TEMP = 25.000000 and TNOM = 27.000000

No. of Data Columns : 6  

No. of Data Rows : 1
No. of Data Columns : 7  

Initial Transient Solution
--------------------------

Node                                   Voltage
----                                   -------
n3                                           5
n1                                    0.854735
n0                                     0.82717
n2                                     0.82717
l1#branch                         -0.000275652
v1#branch                           -0.0414527


No. of Data Rows : 108
.plot line ignored since rawfile was produced.
CPU time since last call: 0.012 seconds.

Total CPU time: 0.012 seconds.

Total DRAM available = 5952.910156 MB.
DRAM currently available = 367.593750 MB.
Total ngspice program size = 14.780273 MB.
Resident set size = 1.881836 MB.
Shared ngspice pages = 1.652344 MB.
Text (code) pages = 1.333008 MB.
Stack = 0 bytes.
Library pages = 411.000 kB.

