
Circuit: * gnetlist -g spice-sdb -o netlists/colpitts.net schematics/colpitts.sch

Doing analysis at TEMP = 25.000000 and TNOM = 27.000000


No. of Data Rows : 1
Doing analysis at TEMP = 25.000000 and TNOM = 27.000000


Initial Transient Solution
--------------------------

Node                                   Voltage
----                                   -------
n3                                           5
n1                                    0.762274
n0                                     0.73537
n2                                     0.73537
l1#branch                         -2.69044e-05
v1#branch                          -0.00423773


No. of Data Rows : 2248

The file "postscript/colpitts.ps" may be printed on a postscript printer.
Doing analysis at TEMP = 25.000000 and TNOM = 27.000000


Initial Transient Solution
--------------------------

Node                                   Voltage
----                                   -------
n3                                           5
n1                                    0.762274
n0                                     0.73537
n2                                     0.73537
l1#branch                         -2.69044e-05
v1#branch                          -0.00423773

