
Circuit: * gnetlist -g spice-sdb -o netlists/colpitts.net schematics/colpitts.sch

Doing analysis at TEMP = 25.000000 and TNOM = 27.000000

No. of Data Columns : 6  

No. of Data Rows : 1
No. of Data Columns : 7  

Initial Transient Solution
--------------------------

Node                                   Voltage
----                                   -------
n3                                           5
n1                                    0.762274
n0                                     0.73537
n2                                     0.73537
l1#branch                         -2.69044e-05
v1#branch                          -0.00423773


No. of Data Rows : 108
.plot line ignored since rawfile was produced.
CPU time since last call: 0.012 seconds.

Total CPU time: 0.012 seconds.

Total DRAM available = 5952.910156 MB.
DRAM currently available = 303.312500 MB.
Total ngspice program size = 14.780273 MB.
Resident set size = 1.878906 MB.
Shared ngspice pages = 1.649414 MB.
Text (code) pages = 1.333008 MB.
Stack = 0 bytes.
Library pages = 411.000 kB.

