
Circuit: * gnetlist -g spice-sdb -o netlists/hartley.net schematics/hartley.sch

Doing analysis at TEMP = 25.000000 and TNOM = 27.000000


No. of Data Rows : 1
Doing analysis at TEMP = 25.000000 and TNOM = 27.000000


Initial Transient Solution
--------------------------

Node                                   Voltage
----                                   -------
v+                                          20
1                                           20
out1                                         0
6                                            0
5                                   3.6328e-08
3                                    0.0733081
2                                  3.70848e-08
4                                      3.18584
l2#branch                                    0
l3#branch                                    0
l1#branch                         -5.02759e-11
v1#branch                         -4.42478e-05


No. of Data Rows : 2248

The file "postscript/hartley.ps" may be printed on a postscript printer.
Doing analysis at TEMP = 25.000000 and TNOM = 27.000000


Initial Transient Solution
--------------------------

Node                                   Voltage
----                                   -------
v+                                          20
1                                           20
out1                                         0
6                                            0
5                                   3.6328e-08
3                                    0.0733081
2                                  3.70848e-08
4                                      3.18584
l2#branch                                    0
l3#branch                                    0
l1#branch                         -5.02759e-11
v1#branch                         -4.42478e-05

