
Circuit: * gnetlist -g spice-sdb -o netlists/hartley.net schematics/hartley.sch

Doing analysis at TEMP = 25.000000 and TNOM = 27.000000


No. of Data Rows : 1
Doing analysis at TEMP = 25.000000 and TNOM = 27.000000


Initial Transient Solution
--------------------------

Node                                   Voltage
----                                   -------
n1                                           0
unknown                                      0
2                                            0
4                                            5
5                                          2.5
n0                                           5
3                                   3.2233e-09
1                                    0.0484298
l1#branch                          1.96518e-11
l3#branch                                    0
l2#branch                                    0
v1#branch                           -0.0113636
vo#branch                                    0


No. of Data Rows : 59
com_hardcopy: graph not defined
Doing analysis at TEMP = 25.000000 and TNOM = 27.000000


Initial Transient Solution
--------------------------

Node                                   Voltage
----                                   -------
n1                                           0
unknown                                      0
2                                            0
4                                            5
5                                          2.5
n0                                           5
3                                   3.2233e-09
1                                    0.0484298
l1#branch                          1.96518e-11
l3#branch                                    0
l2#branch                                    0
v1#branch                           -0.0113636
vo#branch                                    0

