
Circuit: * gnetlist -g spice-sdb -o netlists/hartley.net schematics/hartley.sch

Doing analysis at TEMP = 25.000000 and TNOM = 27.000000


No. of Data Rows : 1
Doing analysis at TEMP = 25.000000 and TNOM = 27.000000


Initial Transient Solution
--------------------------

Node                                   Voltage
----                                   -------
2                                            0
n2                                           0
n1                                           5
4                                          2.5
n0                                           5
3                                   3.2233e-09
1                                    0.0484298
l1#branch                          1.96518e-11
l3#branch                                    0
l2#branch                                    0
v1#branch                           -0.0113636


No. of Data Rows : 2250

The file "postscript/hartley.ps" may be printed on a postscript printer.
Doing analysis at TEMP = 25.000000 and TNOM = 27.000000


Initial Transient Solution
--------------------------

Node                                   Voltage
----                                   -------
2                                            0
n2                                           0
n1                                           5
4                                          2.5
n0                                           5
3                                   3.2233e-09
1                                    0.0484298
l1#branch                          1.96518e-11
l3#branch                                    0
l2#branch                                    0
v1#branch                           -0.0113636

